Query         entcore-clust4532
Match_columns 169
No_of_seqs    1 out of 3
Neff          1.0 
Searched_HMMs 83
Date          Wed Feb 12 16:00:54 2020
Command       hhsearch -i ../results/giant-tab/clusters/hhmake/entcore-clust4532.hmm -d ../results/deg/define-core-accessory-hieranoid/all/core-essential-genomes/hhmake/degfam.hmm -o ../results/giant-tab/entcoredeg/entcore-clust4532.hmm 

 No Hit                             Prob E-value P-value  Score    SS Cols Query HMM  Template HMM
  1 deg-clust48                      3.3     1.1   0.013   25.8   0.0   68   11-82    123-194 (983)
  2 deg-clust452                     2.8     1.3   0.016   20.4   0.0    8   20-27      3-10  (162)
  3 deg-clust244                     2.3     1.7    0.02   21.6   0.0   24  132-155    25-59  (309)
  4 deg-clust322                     2.2     1.8   0.022   22.2   0.0   57   20-76    181-240 (459)
  5 deg-clust107                     1.9     2.1   0.025   22.7   0.0   50   33-104    15-65  (618)
  6 deg-clust3                       1.4       3   0.036   22.0   0.0   12  140-151   152-163 (705)
  7 deg-clust411                     1.2     3.8   0.046   20.3   0.0   10  159-168   330-339 (477)
  8 deg-clust300                     1.2     3.8   0.046   19.2   0.0   37   99-137    50-86  (297)
  9 deg-clust201                     1.1     4.1   0.049   20.2   0.0   22  118-143   126-147 (469)
 10 deg-clust110                     1.1     4.2    0.05   19.0   0.0   14  117-130    10-23  (287)

No 1  
>deg-clust48
Probab=3.31  E-value=1.1  Score=25.85  Aligned_cols=68  Identities=13%  Similarity=0.255  Sum_probs=42.9

Q SL3261_2706      11 HFEEACRAFALRHNMA--KLAERAGMNVQTL--RNKLNPDQPHQLTPPEIWLLTDLTEDSTLVDGFLAQIHCLPCV   82 (169)
Q Consensus        11 hfeeacrafalrhnma--klaeragmnvqtl--rnklnpdqphqltppeiwlltdltedstlvdgflaqihclpcv   82 (169)
                      .|.+.||+||++.--.  +.=.|+|+-..-=  ---+|+.    .---+||++--+-+...|--|+-=+--|.-|-
T Consensus       123 efr~~CR~yA~~qi~~Qk~~F~RLGv~gDw~npY~Tmd~~----~ea~~ir~f~k~~~kG~lykG~KPv~Ws~~~~  194 (983)
T DEG10010110     120 EFRKLCEEYAWKQIEGQREQFKRLGVRGDWENPYVTLKPE----YEAQQIRVFGEMAKRGYIYKGLKPVNWSPSSE  191 (921)
Confidence            5889999999875322  2334666543200  0011111    12346899999999988989988888887774


No 2  
>deg-clust452
Probab=2.80  E-value=1.3  Score=20.42  Aligned_cols=8  Identities=0%  Similarity=0.202  Sum_probs=5.9

Q SL3261_2706      20 ALRHNMAK   27 (169)
Q Consensus        20 alrhnmak   27 (169)
                      |..|||++
T Consensus         3 ~~~~~ma~   10 (162)
T DEG10010040       1 --------    0 (113)
Confidence            45688887


No 3  
>deg-clust244
Probab=2.35  E-value=1.7  Score=21.64  Aligned_cols=24  Identities=29%  Similarity=0.504  Sum_probs=17.1

Q SL3261_2706     132 TRLMALAAVSMQARLQA-----------NPAMASA  155 (169)
Q Consensus       132 trlmalaavsmqarlqa-----------npamasa  155 (169)
                      |..|+++.+||..-|.|           ||.|+--
T Consensus        25 t~~~~m~~vsm~~lLEaGvHFGHqtr~WNPKMk~y   59 (309)
T DEG10010129       1 -----MSVISMKQLLEAGVHFGHQTRRWNPKMKRY   30 (246)
Confidence            34488888888776654           8888753


No 4  
>deg-clust322
Probab=2.19  E-value=1.8  Score=22.19  Aligned_cols=57  Identities=25%  Similarity=0.293  Sum_probs=32.4

Q SL3261_2706      20 ALRHNMAKLAERAGMNVQTLRNKLNPDQPHQLTPPEIWL---LTDLTEDSTLVDGFLAQI   76 (169)
Q Consensus        20 alrhnmaklaeragmnvqtlrnklnpdqphqltppeiwl---ltdltedstlvdgflaqi   76 (169)
                      ...||+.|--||+|+.|.-+------.----||--|-=|   |-|+-.++|-+-=|..+.
T Consensus       181 ~i~~Nl~kcVercgi~V~~iv~splasa~avLtedEkelGvclIDiGaGtTtiAvy~ng~  240 (459)
T DEG10010108     164 TILHNLLRCVERAGIEITDICLQPLAAGSAALSKDEKNLGVALIDIGGGSTTIAVFQNGH  223 (440)
Confidence            457999999999999996532100001112344444432   556666777665444443


No 5  
>deg-clust107
Probab=1.93  E-value=2.1  Score=22.74  Aligned_cols=50  Identities=22%  Similarity=0.335  Sum_probs=31.2

Q SL3261_2706      33 GM.NVQTLRNKLNPDQPHQLTPPEIWLLTDLTEDSTLVDGFLAQIHCLPCVPMNEVAKEKLPH-YVMSATAEIG  104 (169)
Q Consensus        33 gm.nvqtlrnklnpdqphqltppeiwlltdltedstlvdgflaqihclpcvpmnevakeklph-yvmsataeig  104 (169)
                      .| +-|-|-.|..|..-..                     ..+|-|-+-- --|-+...|+.| |..|.+--.|
T Consensus        15 ~M.~YqvLaRKyRP~tF~d---------------------~VGQehv~~t-L~nAl~~~Ri~HAYLFtG~RGvG   65 (618)
T DEG10010007       1 --mSYQALYRVFRPQRFED---------------------VVGQEHITKT-LQNALLQKKFSHAYLFSGPRGTG   50 (563)
Confidence            36 8888888888864322                     2344443321 236777888888 7888775544


No 6  
>deg-clust3
Probab=1.41  E-value=3  Score=22.03  Aligned_cols=12  Identities=42%  Similarity=0.537  Sum_probs=9.8

Q SL3261_2706     140 VSMQARLQANPA  151 (169)
Q Consensus       140 vsmqarlqanpa  151 (169)
                      -+|+.||+|||.
T Consensus       152 ~~i~~rLgan~v  163 (705)
T DEG10010032     149 GTLRDRLQANAH  160 (692)
Confidence            468899999985


No 7  
>deg-clust411
Probab=1.16  E-value=3.8  Score=20.31  Aligned_cols=10  Identities=30%  Similarity=0.700  Sum_probs=7.0

Q SL3261_2706     159 VTGLGASFGI  168 (169)
Q Consensus       159 vtglgasfgi  168 (169)
                      +.|+|.||||
T Consensus       330 tpavGFs~Gi  339 (477)
T DEG10010193     301 APGIGFAMSI  310 (424)
Confidence            4577777775


No 8  
>deg-clust300
Probab=1.15  E-value=3.8  Score=19.21  Aligned_cols=37  Identities=38%  Similarity=0.447  Sum_probs=26.6

Q SL3261_2706      99 ATAEIGRVAAGAVTGDVKTTAGRRDVISSINSVTRLMAL  137 (169)
Q Consensus        99 ataeigrvaagavtgdvkttagrrdvissinsvtrlmal  137 (169)
                      |.-.-||+||-.+.+ +|+ .|..-+|-.+||-|-..|-
T Consensus        50 AaKKa~RvAAEGlv~-~~~-~g~~avivEvN~ETDFVAk   86 (297)
T DEG10010130      48 AAKKADRIAAEGSTL-IKT-DGNKGVILEVNSETDFVAK   84 (293)
Confidence            445678998866554 344 6778889999998887653


No 9  
>deg-clust201
Probab=1.09  E-value=4.1  Score=20.17  Aligned_cols=22  Identities=27%  Similarity=0.448  Sum_probs=15.6

Q SL3261_2706     118 TAGRRDVISSINSVTRLMALAAVSMQ  143 (169)
Q Consensus       118 tagrrdvissinsvtrlmalaavsmq  143 (169)
                      .+|||.    ||..||...++-.-.|
T Consensus       126 E~GRrK----inQ~TRYlTl~lA~~Q  147 (469)
T DEG10010055     103 EVGRRK----LAQFTRYFTIVLGFIQ  124 (431)
Confidence            467874    7999999877644444


No 10 
>deg-clust110
Probab=1.07  E-value=4.2  Score=18.98  Aligned_cols=14  Identities=29%  Similarity=0.423  Sum_probs=9.2

Q SL3261_2706     117 TTAGRRDVISSINS  130 (169)
Q Consensus       117 ttagrrdvissins  130 (169)
                      |+.|||.+..+-|+
T Consensus        10 tspGrR~~v~~~~~   23 (287)
T DEG10010038       9 SSNGRRGMTTSDFA   22 (277)
Confidence            67777777665543


Done!
