Query         entcore-clust2750
Match_columns 170
No_of_seqs    2 out of 3
Neff          1.1 
Searched_HMMs 83
Date          Wed Feb 12 16:08:43 2020
Command       hhsearch -i ../results/giant-tab/clusters/hhmake/entcore-clust2750.hmm -d ../results/deg/define-core-accessory-hieranoid/all/core-essential-genomes/hhmake/degfam.hmm -o ../results/giant-tab/entcoredeg/entcore-clust2750.hmm 

 No Hit                             Prob E-value P-value  Score    SS Cols Query HMM  Template HMM
  1 deg-clust48                      6.9    0.43  0.0052   28.7   0.0   68   11-82    123-194 (983)
  2 deg-clust29                      5.8    0.54  0.0065   27.9   0.0   16   87-102   233-248 (912)
  3 deg-clust322                     2.0       2   0.024   22.0   0.0   55   20-75    181-239 (459)
  4 deg-clust133                     1.7     2.5    0.03   22.6   0.0   44   26-69    524-572 (661)
  5 deg-clust3                       1.4     3.1   0.037   22.1   0.0   43  109-151   110-163 (705)
  6 deg-clust326                     1.4     3.1   0.038   20.2   0.0   50   28-96    190-242 (339)
  7 deg-clust387                     1.0     4.3   0.052   18.3   0.0   21   24-44    136-156 (230)
  8 deg-clust421                     1.0     4.4   0.053   18.3   0.0   72   35-111    86-161 (232)
  9 deg-clust110                     0.9     4.8   0.057   18.7   0.0   16   26-41    153-168 (287)
 10 deg-clust411                     0.9     4.8   0.058   19.7   0.0   21   40-60    212-232 (477)

No 1  
>deg-clust48
Probab=6.92  E-value=0.43  Score=28.70  Aligned_cols=68  Identities=16%  Similarity=0.275  Sum_probs=43.2

Q BN373_14551      11 HFNEACRAFALRHNMAKLA--ERAGMNVQTL--RNKLNPEQPHLLTAPDIWLLTDLTEDSTLVDGFLAQIHCLPCV   82 (169)
Q Consensus        11 hf~eacrafalrhn~~~la--eragmnvq~l--rnklnp~qphlltap~iwlltdltedstlvdgflaqihclpcv   82 (170)
                      .|++.||+||++.--.|=+  .|.|+-+.-=  ---+|++    .-|-.||++--+-+...|--|+-=+--|.-|-
T Consensus       123 efr~~CR~yA~~qi~~Qk~~F~RLGv~gDw~npY~Tmd~~----~ea~~ir~f~k~~~kG~lykG~KPv~Ws~~~~  194 (983)
T DEG10010110     120 EFRKLCEEYAWKQIEGQREQFKRLGVRGDWENPYVTLKPE----YEAQQIRVFGEMAKRGYIYKGLKPVNWSPSSE  191 (921)
Confidence            5888999999887655543  3566533210  0011221    23567888888888888888887777776664


No 2  
>deg-clust29
Probab=5.83  E-value=0.54  Score=27.88  Aligned_cols=16  Identities=50%  Similarity=0.596  Sum_probs=14.0

Q BN373_14551      87 VAREKMPQYVLKATAE  102 (169)
Q Consensus        87 va~ek~p~yv~~atae  102 (170)
                      |-|.+||||+|+-|+-
T Consensus       233 Vekk~m~QW~lkIT~Y  248 (912)
T DEG10010218     182 VERRPMKQWMLKITAY  197 (804)
Confidence            6789999999998873


No 3  
>deg-clust322
Probab=1.99  E-value=2  Score=22.01  Aligned_cols=55  Identities=25%  Similarity=0.373  Sum_probs=30.9

Q BN373_14551      20 ALRHNMAKLAERAGMNVQTLR-NKLNPEQPHLLTAPDIWL---LTDLTEDSTLVDGFLAQ   75 (169)
Q Consensus        20 alrhn~~~laeragmnvq~lr-nklnp~qphlltap~iwl---ltdltedstlvdgflaq   75 (170)
                      ...|||.+--||+|+.|.-+- .-|-- ---.||.-|-=|   |-|+-.|+|-|-=|..+
T Consensus       181 ~i~~Nl~kcVercgi~V~~iv~splas-a~avLtedEkelGvclIDiGaGtTtiAvy~ng  239 (459)
T DEG10010108     164 TILHNLLRCVERAGIEITDICLQPLAA-GSAALSKDEKNLGVALIDIGGGSTTIAVFQNG  222 (440)
Confidence            457999999999999996431 11111 112344444322   45666666655444333


No 4  
>deg-clust133
Probab=1.69  E-value=2.5  Score=22.62  Aligned_cols=44  Identities=30%  Similarity=0.381  Sum_probs=28.8

Q BN373_14551      26 AKLAERAGMNVQTLRNKLNPEQ-PHLLTAP----DIWLLTDLTEDSTLV   69 (169)
Q Consensus        26 ~~laeragmnvq~lrnklnp~q-phlltap----~iwlltdltedstlv   69 (170)
                      .+||||.+|.-..+|.-|+-++ |--|-.|    |---|-|.-||++++
T Consensus       524 EELAErm~Mp~eKvRkIlKIAkEPISlETPIGddeDShLGDFIED~~~~  572 (661)
T DEG10010178     240 EEIAEDMDLTPEKVREILKIAQEPVSLETPIGEEDDSHLGDFIEDQEAT  288 (371)
Confidence            4699999999999998777654 3333333    223455666666654


No 5  
>deg-clust3
Probab=1.38  E-value=3.1  Score=22.07  Aligned_cols=43  Identities=37%  Similarity=0.405  Sum_probs=27.1

Q BN373_14551     109 SAVSGVQLNATT-RRQV-------VESVNSITRLMAL---TAISLQARLQANPA  151 (169)
Q Consensus       109 ~avsg~~~~~~~-rr~~-------i~sinsitrlmal---~aislqarlqanpa  151 (170)
                      -+++|++..+.+ -||+       |--+|..-|.-|=   .--+++.||+|||.
T Consensus       110 ~a~~GVePQsETVWRQA~kY~VPRIvfVNKMDr~GAdF~~~v~~i~~rLgan~v  163 (705)
T DEG10010032     107 DAQSGVEPQTETVWRQATTYGVPRIVFVNKMDKIGADFLYSVGTLRDRLQANAH  160 (692)
Confidence            356788765543 4554       3456766666543   23467899999985


No 6  
>deg-clust326
Probab=1.36  E-value=3.1  Score=20.18  Aligned_cols=50  Identities=32%  Similarity=0.539  Sum_probs=32.8

Q BN373_14551      28 LAERAGMNVQTLRNKL---NPEQPHLLTAPDIWLLTDLTEDSTLVDGFLAQIHCLPCVPTNEVAREKMPQYV   96 (169)
Q Consensus        28 laeragmnvq~lrnkl---np~qphlltap~iwlltdltedstlvdgflaqihclpcvp~neva~ek~p~yv   96 (170)
                      +...-|.||..|-+.+   -|+.||..  ||- .+||..+-      |+|          .|.-|||+=+|+
T Consensus       190 ISA~~g~nv~~L~~~i~~~LPegp~~f--peD-qiTD~p~R------Fla----------aEiiREKil~~~  242 (339)
T DEG10010182     153 ISALEGNNIETLLAQIEAYLPEGPQFY--PSD-QVTDHPER------FII----------SELIREKVLHLT  205 (301)
Confidence            4455689999888765   58888887  332 23555542      443          688888876665


No 7  
>deg-clust387
Probab=1.03  E-value=4.3  Score=18.28  Aligned_cols=21  Identities=19%  Similarity=0.297  Sum_probs=16.0

Q BN373_14551      24 NMAKLAERAGMNVQTLRNKLN   44 (169)
Q Consensus        24 n~~~laeragmnvq~lrnkln   44 (170)
                      -|.+.+..+|++++++-.|-+
T Consensus       136 ~mi~~l~~~~ip~~ivlTKaD  156 (230)
T DEG10010200     125 QMYEFLKYYGIPVIVIATKAD  145 (195)
Confidence            356778899999999876543


No 8  
>deg-clust421
Probab=1.03  E-value=4.4  Score=18.28  Aligned_cols=72  Identities=25%  Similarity=0.252  Sum_probs=45.0

Q BN373_14551      35 NVQTLRNKLNPEQPHLLTAPDIWLLTDLTEDSTLV-DGFLAQIHCLPCVPTNEVARE-KMPQY--VLKATAEIGRVAASA  110 (169)
Q Consensus        35 nvq~lrnklnp~qphlltap~iwlltdltedstlv-dgflaqihclpcvp~neva~e-k~p~y--v~~ataeigrvaa~a  110 (170)
                      ..|-|.+++-|+-     +-..|.+.|=--||++. -|+--.+-=-=---+||.+-. .+|..  .+....|+|.--+.+
T Consensus        86 R~qHl~~vI~PAL-----a~G~~Vl~DRf~dSS~AYQG~gRgl~~~~i~~Ln~~a~~~~~PDLTl~lDi~~e~gL~Ra~~  160 (232)
T DEG10010008      74 RRQHLVEKVKPAL-----EQGFIVLCDRFIDSPLAYQGYARGLGIDEVLSINEFAIGDMMPHVTVYFSIDPEEGLKRIYA  148 (212)
Confidence            4688888888863     56789999999999874 343322211111224555533 45653  567888988665555


Q BN373_14551     111 V  111 (169)
Q Consensus       111 v  111 (170)
                      .
T Consensus       161 r  161 (232)
T DEG10010008     149 N  149 (212)
Confidence            4


No 9  
>deg-clust110
Probab=0.95  E-value=4.8  Score=18.70  Aligned_cols=16  Identities=31%  Similarity=0.463  Sum_probs=13.0

Q BN373_14551      26 AKLAERAGMNVQTLRN   41 (169)
Q Consensus        26 ~~laeragmnvq~lrn   41 (170)
                      .|||..||-.+|++-.
T Consensus       153 ~qlaRSAGa~aQl~gr  168 (287)
T DEG10010038     152 GQLVRSAGTSAQVLGK  167 (277)
Confidence            5899999999988754


No 10 
>deg-clust411
Probab=0.94  E-value=4.8  Score=19.75  Aligned_cols=21  Identities=19%  Similarity=0.243  Sum_probs=13.3

Q BN373_14551      40 RNKLNPEQPHLLTAPDIWLLT   60 (169)
Q Consensus        40 rnklnp~qphlltap~iwllt   60 (170)
                      -.|+.+.|--+-.||.|-.+-
T Consensus       212 ddKi~~~~~~~~~ap~i~d~L  232 (477)
T DEG10010193     208 DCKKDRDHELMKSAPSILTYL  228 (424)
Confidence            345666777777888765443


Done!
